/*--------------------------------*- C++ -*----------------------------------*\
| =========                 |                                                 |
| \\      /  F ield         | OpenFOAM: The Open Source CFD Toolbox           |
|  \\    /   O peration     | Version:  2306                                  |
|   \\  /    A nd           | Website:  www.openfoam.com                      |
|    \\/     M anipulation  |                                                 |
\*---------------------------------------------------------------------------*/
FoamFile
{
    version     2.0;
    format      ascii;
    arch        "LSB;label=32;scalar=64";
    class       extendedFeatureEdgeMesh;
    location    "constant/extendedFeatureEdgeMesh";
    object      NASAsc2-0410.extendedFeatureEdgeMesh;
}
// * * * * * * * * * * * * * * * * * * * * * * * * * * * * * * * * * * * * * //

// points

2184
(
(1.000435 0.04948372 2.9500117)
(1.0004413 0.049482003 2.9500117)
(0.0043297759 0.13584694 2.9500117)
(1.0004873 0.049469557 2.9500117)
(1.0005199 0.049460772 2.9500117)
(1.0005239 0.049459681 2.9500117)
(1.0005339 0.049456984 2.9500117)
(1.0005432 0.049454488 2.9500117)
(0.0049772272 0.13806784 1.1718073e-05)
(1.000576 0.049445733 1.1718073e-05)
(1.0005902 0.049442112 1.1718073e-05)
(1.0004284 0.049485508 2.9500117)
(1.0004781 0.049472064 2.9500117)
(1.0004475 0.049480345 2.9500117)
(1.0005039 0.049465109 2.9500117)
(0.0043261391 0.13575915 2.9500117)
(0.0043261591 0.13574933 2.9500117)
(0.0047054747 0.13709641 2.9500117)
(0.0051638144 0.13005117 2.9500117)
(0.0051893974 0.12993219 2.9500117)
(0.0044257706 0.13502149 2.9500117)
(0.042039353 0.15835443 2.9500117)
(0.0089210197 0.12328507 2.9500117)
(0.04221594 0.15838452 2.9500117)
(0.009365676 0.12286214 2.9500117)
(0.043404296 0.15858214 2.9500117)
(0.043607585 0.15861514 2.9500117)
(0.19764999 0.07386104 2.9500117)
(0.21040344 0.072123602 2.9500117)
(0.20861377 0.1627281 2.9500117)
(0.79963779 0.060834203 2.9500117)
(0.80229896 0.093933731 2.9500117)
(0.7820487 0.059705239 2.9500117)
(0.77977455 0.098242454 2.9500117)
(0.77107811 0.0589086 2.9500117)
(0.96958339 0.056230504 2.9500117)
(0.97067833 0.056034997 2.9500117)
(0.96988732 0.057521757 2.9500117)
(0.012957175 0.14871314 2.9500117)
(0.012277468 0.14825968 2.9500117)
(0.0043923045 0.13523534 2.9500117)
(0.012112818 0.14814903 2.9500117)
(0.011442682 0.14769946 2.9500117)
(0.01140729 0.14767586 2.9500117)
(0.011001795 0.14740758 2.9500117)
(0.0043705609 0.13536042 2.9500117)
(0.0043618414 0.1354112 2.9500117)
(0.0054231333 0.12894434 2.9500117)
(0.0044035446 0.13516715 2.9500117)
(0.0054004015 0.12903304 2.9500117)
(0.0044146003 0.13509661 2.9500117)
(0.0053785639 0.12911966 2.9500117)
(0.0052619288 0.12960696 2.9500117)
(0.005286755 0.12949964 2.9500117)
(0.0053089568 0.12940535 2.9500117)
(0.005213676 0.12982136 2.9500117)
(0.0052389698 0.12970801 2.9500117)
(0.0051374221 0.13017628 2.9500117)
(0.0044371411 0.1349407 2.9500117)
(0.005111807 0.13030002 2.9500117)
(0.0050220378 0.13075164 2.9500117)
(0.0049977424 0.1308786 2.9500117)
(0.0044488371 0.13485262 2.9500117)
(0.76419592 0.10122623 2.9500117)
(0.75245023 0.1033622 2.9500117)
(0.73986137 0.056597471 2.9500117)
(0.72282386 0.10872469 2.9500117)
(0.68457031 0.052510682 2.9500117)
(0.98361576 0.05403335 2.9500117)
(0.98560882 0.053031605 2.9500117)
(0.98949909 0.052477628 2.9500117)
(0.98921138 0.052236199 2.9500117)
(0.99197567 0.051811602 2.9500117)
(0.99168366 0.051669925 2.9500117)
(0.99329805 0.051289644 2.9500117)
(0.9981603 0.050118666 2.9500117)
(0.99814129 0.050123934 2.9500117)
(0.99813122 0.050090946 2.9500117)
(0.0043263305 0.13577813 2.9500117)
(0.0043262243 0.13577119 2.9500117)
(0.0045178495 0.1365017 2.9500117)
(0.0045113065 0.13648297 2.9500117)
(0.0043263854 0.13578095 2.9500117)
(0.0053331829 0.12930423 2.9500117)
(0.0053550424 0.12921456 2.9500117)
(0.0050568627 0.13057314 2.9500117)
(0.0050821193 0.13044629 2.9500117)
(0.57836175 0.13111502 2.9500117)
(0.58370686 0.046839695 2.9500117)
(0.58583921 0.13013549 2.9500117)
(0.60104239 0.12799576 2.9500117)
(0.80374992 0.093649954 2.9500117)
(0.82233584 0.062061168 2.9500117)
(0.84661335 0.085001081 2.9500117)
(0.84012437 0.062853664 2.9500117)
(0.97383863 0.056542117 2.9500117)
(0.99800384 0.05016198 2.9500117)
(0.99798357 0.05016759 2.9500117)
(0.9981792 0.050113436 2.9500117)
(0.0043261973 0.13576874 2.9500117)
(0.0043261447 0.13576119 2.9500117)
(0.0045341146 0.13654883 2.9500117)
(0.0044952193 0.13643752 2.9500117)
(0.0044421409 0.13629055 2.9500117)
(0.0044337083 0.13626681 2.9500117)
(0.34727526 0.15480037 2.9500117)
(0.34885299 0.056679711 2.9500117)
(0.35696018 0.055987492 2.9500117)
(0.80209661 0.060979251 2.9500117)
(0.80754715 0.061273783 2.9500117)
(0.8187083 0.061881162 2.9500117)
(0.99802393 0.050156418 2.9500117)
(0.9999668 0.049615912 2.9500117)
(0.99996185 0.049617298 2.9500117)
(0.99999815 0.049601577 2.9500117)
(1.0001507 0.049564708 2.9500117)
(1.0001417 0.0495672 2.9500117)
(1.0000032 0.049600244 2.9500117)
(0.010024191 0.14677033 2.9500117)
(0.0099900514 0.14674732 2.9500117)
(0.0058460645 0.14061832 2.9500117)
(0.0099238828 0.14670238 2.9500117)
(0.0058977432 0.14075418 2.9500117)
(0.0046671145 0.13696611 2.9500117)
(0.0046428237 0.13688576 2.9500117)
(0.0044269236 0.13624749 2.9500117)
(0.0044225687 0.13623492 2.9500117)
(0.0044159689 0.13621566 2.9500117)
(0.0044132164 0.13620752 2.9500117)
(0.0044081202 0.13619226 2.9500117)
(0.0044053681 0.13618392 2.9500117)
(0.0078961328 0.12424995 2.9500117)
(0.0079137292 0.12423258 2.9500117)
(0.0079702288 0.12417723 2.9500117)
(0.0079941023 0.12415403 2.9500117)
(0.0044593075 0.13476914 2.9500117)
(0.0049194414 0.13130069 2.9500117)
(0.0049531958 0.13111639 2.9500117)
(0.0046318742 0.13313004 2.9500117)
(0.0046452689 0.13302539 2.9500117)
(0.0045053512 0.13434672 2.9500117)
(0.38699692 0.15162784 2.9500117)
(0.85382038 0.063318118 2.9500117)
(0.85958523 0.063458353 2.9500117)
(0.85361618 0.083574943 2.9500117)
(0.86173362 0.063501857 2.9500117)
(0.87693793 0.078624114 2.9500117)
(0.86811143 0.063603051 2.9500117)
(0.87081343 0.063636139 2.9500117)
(0.87696236 0.063691303 2.9500117)
(0.87721545 0.078565069 2.9500117)
(0.87955213 0.063696206 2.9500117)
(0.88074821 0.063693322 2.9500117)
(0.94350076 0.060045857 2.9500117)
(0.94552481 0.059799191 2.9500117)
(0.94688368 0.06307172 2.9500117)
(0.9938764 0.051150966 2.9500117)
(0.99543196 0.050771508 2.9500117)
(0.9963733 0.050612349 2.9500117)
(0.99796313 0.050173245 2.9500117)
(0.99794257 0.050178945 2.9500117)
(0.99719018 0.050331961 2.9500117)
(0.99617374 0.050587621 2.9500117)
(0.99995685 0.049618684 2.9500117)
(0.9999519 0.049620077 2.9500117)
(0.99994689 0.049621474 2.9500117)
(1.0001596 0.049562227 2.9500117)
(1.0003682 0.04950425 2.9500117)
(1.0003662 0.049502328 2.9500117)
(1.0003692 0.049501531 2.9500117)
(0.02837766 0.15534812 2.9500117)
(0.02780595 0.15518868 2.9500117)
(0.027373523 0.15506613 2.9500117)
(0.026959492 0.15494719 2.9500117)
(0.024797918 0.15429565 2.9500117)
(0.024508672 0.15420404 2.9500117)
(0.024235193 0.15411632 2.9500117)
(0.02395294 0.15402457 2.9500117)
(0.0043454887 0.13551562 2.9500117)
(0.004347227 0.13550352 2.9500117)
(0.0046725338 0.13698427 2.9500117)
(0.0046364395 0.13686495 2.9500117)
(0.0046153227 0.13679697 2.9500117)
(0.0046084737 0.13677523 2.9500117)
(0.0080540935 0.12409613 2.9500117)
(0.0080876276 0.124064 2.9500117)
(0.008173693 0.12398224 2.9500117)
(0.0047761966 0.1321326 2.9500117)
(0.0044715125 0.13466601 2.9500117)
(0.0044741072 0.13464326 2.9500117)
(0.0047024991 0.13261136 2.9500117)
(0.0044869743 0.13452604 2.9500117)
(0.0044884495 0.13451216 2.9500117)
(0.0045897551 0.13348696 2.9500117)
(0.0045379531 0.1340054 2.9500117)
(0.0045812801 0.13356537 2.9500117)
(0.0045703398 0.13367081 2.9500117)
(0.63906121 0.049348067 2.9500117)
(0.64541769 0.049747705 2.9500117)
(0.64115739 0.12210021 2.9500117)
(0.65934581 0.050647739 2.9500117)
(0.65682435 0.11973243 2.9500117)
(0.67095912 0.051507179 2.9500117)
(0.67823797 0.11628528 2.9500117)
(0.71237969 0.11050338 2.9500117)
(0.68616778 0.11499608 2.9500117)
(0.68431628 0.11530384 2.9500117)
(0.9123919 0.062790647 2.9500117)
(0.91421276 0.062683523 2.9500117)
(0.89290285 0.075235188 2.9500117)
(0.99823499 0.050097983 2.9500117)
(0.99821651 0.050103098 2.9500117)
(0.99819791 0.050108247 2.9500117)
(1.000374 0.049502667 2.9500117)
(0.025829289 0.15461338 2.9500117)
(0.0254355 0.15449366 2.9500117)
(0.02514058 0.15440272 2.9500117)
(0.0060695158 0.14119577 2.9500117)
(0.0060046404 0.14103088 2.9500117)
(0.0059641167 0.14092669 2.9500117)
(0.0057788063 0.1404396 2.9500117)
(0.0057026735 0.1402349 2.9500117)
(0.0056414837 0.14006856 2.9500117)
(0.0055647758 0.13985741 2.9500117)
(0.005523867 0.13974345 2.9500117)
(0.0054653189 0.13957845 2.9500117)
(0.0043487786 0.13549298 2.9500117)
(0.0043510413 0.13547802 2.9500117)
(0.0043526646 0.13546754 2.9500117)
(0.0043557431 0.13544816 2.9500117)
(0.004358408 0.13543181 2.9500117)
(0.0045894179 0.1367155 2.9500117)
(0.0045824093 0.13669384 2.9500117)
(0.0045647081 0.1366398 2.9500117)
(0.0045577362 0.13661881 2.9500117)
(0.0045409179 0.1365688 2.9500117)
(0.0044012442 0.13617127 2.9500117)
(0.0043985867 0.136163 2.9500117)
(0.0043951208 0.13615207 2.9500117)
(0.0077682314 0.12437828 2.9500117)
(0.0077795433 0.12436678 2.9500117)
(0.0082316147 0.12392767 2.9500117)
(0.0084611643 0.12371378 2.9500117)
(0.0047184611 0.13250339 2.9500117)
(0.004736905 0.13238183 2.9500117)
(0.0047561182 0.13225843 2.9500117)
(0.0046571223 0.13293557 2.9500117)
(0.0046721548 0.13282499 2.9500117)
(0.0046857679 0.13272768 2.9500117)
(0.0046001468 0.13339424 2.9500117)
(0.004609541 0.1333133 2.9500117)
(0.0046213851 0.13321462 2.9500117)
(0.37667519 0.054308034 2.9500117)
(0.37847078 0.05416153 2.9500117)
(0.40747231 0.14978684 2.9500117)
(0.39326555 0.053055011 2.9500117)
(0.41646123 0.14897791 2.9500117)
(0.40872839 0.051893324 2.9500117)
(0.41623941 0.051401217 2.9500117)
(0.43509477 0.14730527 2.9500117)
(0.2576153 0.066085197 2.9500117)
(0.26194248 0.16045427 2.9500117)
(0.2500172 0.06696716 2.9500117)
(0.23983127 0.16155408 2.9500117)
(0.2350219 0.068835191 2.9500117)
(0.22922274 0.0695756 2.9500117)
(0.18814549 0.1633352 2.9500117)
(0.1815901 0.076292932 2.9500117)
(0.19169714 0.074728832 2.9500117)
(0.19345181 0.074468024 2.9500117)
(0.59782225 0.047323972 2.9500117)
(0.60725051 0.047736894 2.9500117)
(0.61571771 0.12593639 2.9500117)
(0.61944473 0.048281673 2.9500117)
(0.62132227 0.048378665 2.9500117)
(0.9032197 0.063228391 2.9500117)
(0.90467715 0.06317123 2.9500117)
(0.90663767 0.063086525 2.9500117)
(0.92734444 0.067577451 2.9500117)
(0.97205204 0.055783611 2.9500117)
(0.97297359 0.055611238 2.9500117)
(0.97524607 0.056187779 2.9500117)
(0.97442603 0.055333763 2.9500117)
(0.97546852 0.055130489 2.9500117)
(0.99808329 0.050139986 2.9500117)
(0.99806368 0.050145421 2.9500117)
(0.99804389 0.050150897 2.9500117)
(0.99998164 0.049611781 2.9500117)
(0.99997669 0.049613155 2.9500117)
(0.99997175 0.049614534 2.9500117)
(1.0001328 0.049569707 2.9500117)
(1.0001283 0.049570967 2.9500117)
(1.0001237 0.049572229 2.9500117)
(1.0000206 0.049600925 2.9500117)
(1.0000157 0.04960227 2.9500117)
(0.040731043 0.15812558 2.9500117)
(0.039549675 0.15790948 2.9500117)
(0.026584748 0.15483803 2.9500117)
(0.026136609 0.15470554 2.9500117)
(0.023727916 0.15395048 2.9500117)
(0.023457192 0.15386021 2.9500117)
(0.023263309 0.15379472 2.9500117)
(0.0054252166 0.13946404 2.9500117)
(0.0053778673 0.13932732 2.9500117)
(0.0053395331 0.13921523 2.9500117)
(0.0043401998 0.13555509 2.9500117)
(0.0043413471 0.13554612 2.9500117)
(0.0043926062 0.13614404 2.9500117)
(0.0043896027 0.13613431 2.9500117)
(0.0043872544 0.13612661 2.9500117)
(0.007721575 0.12442614 2.9500117)
(0.007829329 0.12431649 2.9500117)
(0.0078430548 0.12430274 2.9500117)
(0.0048001008 0.13198644 2.9500117)
(0.0048215622 0.13185818 2.9500117)
(0.0044610538 0.13475478 2.9500117)
(0.0048525212 0.13167745 2.9500117)
(0.0048748236 0.13154997 2.9500117)
(0.55787903 0.13378298 2.9500117)
(0.55318373 0.13437198 2.9500117)
(0.54566038 0.046224445 2.9500117)
(0.57498914 0.046560362 2.9500117)
(0.57657313 0.046604019 2.9500117)
(0.58197254 0.046778567 2.9500117)
(0.3288646 0.058578968 2.9500117)
(0.33920491 0.15545118 2.9500117)
(0.30873102 0.060496505 2.9500117)
(0.3220554 0.15665938 2.9500117)
(0.28941059 0.062529892 2.9500117)
(0.29813513 0.15833433 2.9500117)
(0.27983281 0.063533686 2.9500117)
(0.27007806 0.16002502 2.9500117)
(0.26637861 0.16022886 2.9500117)
(0.01088115 0.12141325 2.9500117)
(0.010920927 0.12137592 2.9500117)
(0.044868775 0.158815 2.9500117)
(0.045157533 0.15885964 2.9500117)
(0.13754109 0.083521359 2.9500117)
(0.1516764 0.081037596 2.9500117)
(0.14922442 0.16393554 2.9500117)
(0.16812763 0.16374163 2.9500117)
(0.84363925 0.06299454 2.9500117)
(0.84566641 0.063067399 2.9500117)
(0.85151201 0.063252993 2.9500117)
(0.90815687 0.063014962 2.9500117)
(0.91022646 0.062909722 2.9500117)
(0.93099511 0.066759542 2.9500117)
(0.93101394 0.061382961 2.9500117)
(0.93306851 0.066286393 2.9500117)
(0.93306279 0.061185095 2.9500117)
(0.93506455 0.060983513 2.9500117)
(0.97698534 0.054829083 2.9500117)
(0.97837996 0.054546937 2.9500117)
(0.98103589 0.054705113 2.9500117)
(0.98161244 0.053879995 2.9500117)
(0.98377949 0.053423908 2.9500117)
(0.99994189 0.049622871 2.9500117)
(0.99993682 0.049624275 2.9500117)
(0.99993181 0.049625684 2.9500117)
(1.000186 0.049554903 2.9500117)
(1.0001773 0.049557324 2.9500117)
(1.0001686 0.049559768 2.9500117)
(1.0000254 0.049599584 2.9500117)
(1.0003721 0.049500745 2.9500117)
(1.0003749 0.049499966 2.9500117)
(1.0003796 0.049501121 2.9500117)
(0.0054452252 0.12885952 2.9500117)
(0.0054718535 0.12875909 2.9500117)
(0.0044028671 0.13517135 2.9500117)
(0.040919919 0.15815929 2.9500117)
(0.038239684 0.15765896 2.9500117)
(0.037093967 0.15743002 2.9500117)
(0.036984965 0.15740775 2.9500117)
(0.035965052 0.15719511 2.9500117)
(0.023005677 0.15370658 2.9500117)
(0.022832803 0.15364669 2.9500117)
(0.022588903 0.15356115 2.9500117)
(0.0098992093 0.14668548 2.9500117)
(0.0098367715 0.14664239 2.9500117)
(0.006103029 0.14128003 2.9500117)
(0.0061660269 0.14143662 2.9500117)
(0.0043426589 0.13553616 2.9500117)
(0.0043440484 0.13552593 2.9500117)
(0.0043845871 0.13611773 2.9500117)
(0.0043824143 0.13611038 2.9500117)
(0.004379998 0.1361021 2.9500117)
(0.53827202 0.046279497 2.9500117)
(0.5494827 0.13481852 2.9500117)
(0.52362919 0.046492778 2.9500117)
(0.52148694 0.13818121 2.9500117)
(0.51796645 0.046583701 2.9500117)
(0.23061547 0.16194575 2.9500117)
(0.21631712 0.1625011 2.9500117)
(0.21571283 0.16252151 2.9500117)
(0.13372627 0.084191419 2.9500117)
(0.14488314 0.16396418 2.9500117)
(0.14335065 0.16396824 2.9500117)
(0.12965305 0.16387668 2.9500117)
(0.12897348 0.085041471 2.9500117)
(0.13786839 0.16395435 2.9500117)
(0.13904779 0.16396087 2.9500117)
(0.15330702 0.080760434 2.9500117)
(0.15760025 0.080049433 2.9500117)
(0.16526586 0.078836046 2.9500117)
(0.91655701 0.062536038 2.9500117)
(0.91852677 0.062403612 2.9500117)
(0.92074096 0.062245488 2.9500117)
(0.92688161 0.061755762 2.9500117)
(0.92889541 0.06157849 2.9500117)
(0.93728006 0.060750999 2.9500117)
(0.93927675 0.060533118 2.9500117)
(0.94148415 0.060283039 2.9500117)
(0.99828953 0.05008287 2.9500117)
(0.99827147 0.050087873 2.9500117)
(0.99825329 0.050092909 2.9500117)
(0.039473392 0.15789522 2.9500117)
(0.038262133 0.15766335 2.9500117)
(0.035780266 0.15715575 2.9500117)
(0.034872103 0.15695849 2.9500117)
(0.034621462 0.15690294 2.9500117)
(0.0052997312 0.13909739 2.9500117)
(0.0052636396 0.13898914 2.9500117)
(0.0052291183 0.13888426 2.9500117)
(0.0054885298 0.12869717 2.9500117)
(0.0055146702 0.12860158 2.9500117)
(0.0055296607 0.12854759 2.9500117)
(0.88308787 0.063678443 2.9500117)
(0.8842985 0.063666053 2.9500117)
(0.89237231 0.07535056 2.9500117)
(0.89729005 0.063413143 2.9500117)
(0.89966893 0.063347772 2.9500117)
(0.90097046 0.063307166 2.9500117)
(0.92269993 0.062097453 2.9500117)
(0.92481923 0.061928693 2.9500117)
(0.9981221 0.050129246 2.9500117)
(0.99810278 0.050134595 2.9500117)
(0.9999963 0.049607683 2.9500117)
(0.99999142 0.049609046 2.9500117)
(0.99998653 0.049610414 2.9500117)
(1.0003778 0.049499195 2.9500117)
(1.0003806 0.049498435 2.9500117)
(1.000385 0.049499605 2.9500117)
(0.022430357 0.15350483 2.9500117)
(0.022200309 0.15342212 2.9500117)
(0.022050755 0.15336767 2.9500117)
(0.0062822369 0.1417193 2.9500117)
(0.0062560043 0.14165621 2.9500117)
(0.0097591234 0.14658801 2.9500117)
(0.0051954715 0.13878068 2.9500117)
(0.0051647602 0.13868488 2.9500117)
(0.0051336144 0.1385864 2.9500117)
(0.0043370007 0.13558172 2.9500117)
(0.0043380493 0.13557267 2.9500117)
(0.0043390207 0.1355646 2.9500117)
(0.0076182112 0.12453448 2.9500117)
(0.0076591214 0.12449119 2.9500117)
(0.43651718 0.14717364 2.9500117)
(0.44000012 0.049876053 2.9500117)
(0.46624908 0.14420857 2.9500117)
(0.45614788 0.048994262 2.9500117)
(0.45734215 0.048930828 2.9500117)
(0.47912353 0.14289533 2.9500117)
(0.010418314 0.12185129 2.9500117)
(0.059954952 0.10027906 2.9500117)
(0.063211799 0.099404499 2.9500117)
(0.058809336 0.16059002 2.9500117)
(0.064135477 0.099160127 2.9500117)
(0.05979332 0.16069186 2.9500117)
(0.067271501 0.098343 2.9500117)
(0.062231399 0.16093467 2.9500117)
(0.067678861 0.098238431 2.9500117)
(0.063108332 0.16101894 2.9500117)
(0.070674501 0.097482055 2.9500117)
(0.066446349 0.16132653 2.9500117)
(0.071074963 0.097382635 2.9500117)
(0.95320123 0.061581969 2.9500117)
(0.95348543 0.05874601 2.9500117)
(0.95565975 0.058435719 2.9500117)
(0.96454722 0.057077739 2.9500117)
(0.96613801 0.056818254 2.9500117)
(0.96709001 0.058203511 2.9500117)
(0.96724796 0.056633104 2.9500117)
(0.96848768 0.056421742 2.9500117)
(1.000011 0.049603619 2.9500117)
(1.0000061 0.049604971 2.9500117)
(1.0000012 0.049606327 2.9500117)
(0.99992675 0.049627095 2.9500117)
(0.99992168 0.049628511 2.9500117)
(0.99946046 0.049743753 2.9500117)
(1.0002116 0.049547777 2.9500117)
(1.0002031 0.049550127 2.9500117)
(1.0001947 0.0495525 2.9500117)
(1.0000398 0.049595583 2.9500117)
(1.000035 0.049596913 2.9500117)
(1.0000303 0.049598247 2.9500117)
(0.03381237 0.15672013 2.9500117)
(0.033504032 0.15664908 2.9500117)
(0.032783408 0.15647997 2.9500117)
(0.006340988 0.14185905 2.9500117)
(0.0098179001 0.14662924 2.9500117)
(0.0061950814 0.14150806 2.9500117)
(0.0043336987 0.1356128 2.9500117)
(0.0043345052 0.13560477 2.9500117)
(0.0043780012 0.13609517 2.9500117)
(0.0043757777 0.13608731 2.9500117)
(0.0043739537 0.13608077 2.9500117)
(0.0076680565 0.12448181 2.9500117)
(0.0077117551 0.12443629 2.9500117)
(0.011293066 0.12102935 2.9500117)
(0.011523101 0.12081777 2.9500117)
(0.046496242 0.15906146 2.9500117)
(0.050059211 0.10308471 2.9500117)
(0.05068662 0.10289864 2.9500117)
(0.052746687 0.10229644 2.9500117)
(0.94760245 0.059537031 2.9500117)
(0.94961643 0.059274305 2.9500117)
(0.95159996 0.059007332 2.9500117)
(0.95761013 0.058149669 2.9500117)
(0.95985097 0.057812549 2.9500117)
(0.96261787 0.057384539 2.9500117)
(0.99834293 0.050068084 2.9500117)
(0.99832523 0.050072979 2.9500117)
(0.99830747 0.050077908 2.9500117)
(1.0003834 0.049497679 2.9500117)
(1.0003861 0.049496934 2.9500117)
(1.0003903 0.049498122 2.9500117)
(0.009743873 0.14657722 2.9500117)
(0.0067932764 0.14286304 2.9500117)
(0.0067448402 0.14276162 2.9500117)
(0.0051057218 0.13849701 2.9500117)
(0.005077051 0.13840383 2.9500117)
(0.0050513158 0.138319 2.9500117)
(0.0043352391 0.13559772 2.9500117)
(0.0043361629 0.13558918 2.9500117)
(0.55262953 0.046228051 2.9500117)
(0.56075323 0.046295479 2.9500117)
(0.57004398 0.046445452 2.9500117)
(0.47598529 0.048080131 2.9500117)
(0.49003688 0.047466699 2.9500117)
(0.51016128 0.1394828 2.9500117)
(0.49574438 0.0472565 2.9500117)
(0.50646299 0.046891633 2.9500117)
(0.011158828 0.12115379 2.9500117)
(0.041839521 0.10566573 2.9500117)
(0.055628948 0.16024375 2.9500117)
(0.040942937 0.10596604 2.9500117)
(0.040186521 0.10622267 2.9500117)
(0.057116177 0.16040912 2.9500117)
(0.048415106 0.10357866 2.9500117)
(0.047728419 0.10378789 2.9500117)
(0.056192409 0.10131635 2.9500117)
(0.059241112 0.10047353 2.9500117)
(0.88680893 0.063630655 2.9500117)
(0.88873553 0.063596405 2.9500117)
(0.89516562 0.063463569 2.9500117)
(0.029779669 0.15572694 2.9500117)
(0.029374028 0.15561911 2.9500117)
(0.028766319 0.15545487 2.9500117)
(0.016569102 0.1509175 2.9500117)
(0.016363665 0.15080455 2.9500117)
(0.016319487 0.15078004 2.9500117)
(0.016082881 0.15064736 2.9500117)
(0.0096886195 0.14653781 2.9500117)
(0.009675636 0.14652848 2.9500117)
(0.0068095969 0.14289688 2.9500117)
(0.00649992 0.1422264 2.9500117)
(0.0064456183 0.14210266 2.9500117)
(0.0050250227 0.13823111 2.9500117)
(0.0049999962 0.13814621 2.9500117)
(0.0049769441 0.13806686 2.9500117)
(0.0043311776 0.1356407 2.9500117)
(0.0043317741 0.13563363 2.9500117)
(0.0043718801 0.13607323 2.9500117)
(0.0043702233 0.13606711 2.9500117)
(0.0043682689 0.13605978 2.9500117)
(0.11969125 0.086786658 2.9500117)
(0.12160429 0.086419441 2.9500117)
(0.12689376 0.085423633 2.9500117)
(0.078189045 0.16224009 2.9500117)
(0.075093031 0.16202831 2.9500117)
(0.079706423 0.09531831 2.9500117)
(0.074770935 0.16200499 2.9500117)
(0.074658491 0.096509196 2.9500117)
(0.071640931 0.16176584 2.9500117)
(0.07112854 0.16172469 2.9500117)
(0.067024782 0.16137779 2.9500117)
(0.020036599 0.1147949 2.9500117)
(0.020355972 0.11462212 2.9500117)
(0.02048289 0.11455408 2.9500117)
(0.020852841 0.11435759 2.9500117)
(0.99991655 0.04962993 2.9500117)
(0.99991149 0.049631353 2.9500117)
(0.99990636 0.04963278 2.9500117)
(0.99984366 0.049650297 2.9500117)
(0.99983829 0.04965179 2.9500117)
(1.0002364 0.049540896 2.9500117)
(1.0002283 0.049543161 2.9500117)
(1.0002201 0.049545456 2.9500117)
(1.000054 0.049591612 2.9500117)
(1.0000494 0.049592931 2.9500117)
(1.0000446 0.049594253 2.9500117)
(1.0003889 0.0494962 2.9500117)
(1.0003916 0.04949547 2.9500117)
(1.0003955 0.049496669 2.9500117)
(0.032424212 0.15639405 2.9500117)
(0.03178259 0.15623784 2.9500117)
(0.031378876 0.1561377 2.9500117)
(0.021835068 0.15328822 2.9500117)
(0.021683447 0.15323165 2.9500117)
(0.021449432 0.1531432 2.9500117)
(0.018167593 0.15173689 2.9500117)
(0.018195638 0.15175037 2.9500117)
(0.018458661 0.15187553 2.9500117)
(0.014269472 0.14956136 2.9500117)
(0.013882811 0.14931595 2.9500117)
(0.013447048 0.14903463 2.9500117)
(0.0064220382 0.14204836 2.9500117)
(0.0063655032 0.14191675 2.9500117)
(0.010142376 0.1468491 2.9500117)
(0.010094104 0.14681706 2.9500117)
(0.0048686741 0.13768074 2.9500117)
(0.0049521565 0.13798024 2.9500117)
(0.0043306611 0.13564712 2.9500117)
(0.004332352 0.13562709 2.9500117)
(0.0043330491 0.13561955 2.9500117)
(0.0043663997 0.13605264 2.9500117)
(0.0043649152 0.13604686 2.9500117)
(0.0043628882 0.13603884 2.9500117)
(0.0075631849 0.12459363 2.9500117)
(0.0075714663 0.12458466 2.9500117)
(0.0076097474 0.1245435 2.9500117)
(0.51131129 0.046739232 2.9500117)
(0.5129146 0.046694871 2.9500117)
(0.51632369 0.046615321 2.9500117)
(0.020973889 0.11429387 2.9500117)
(0.021420592 0.11406094 2.9500117)
(0.021524068 0.11400747 2.9500117)
(0.044443455 0.1048158 2.9500117)
(0.045699481 0.1044172 2.9500117)
(0.046379901 0.10420422 2.9500117)
(0.99839514 0.050053615 2.9500117)
(0.99837786 0.050058406 2.9500117)
(0.99836046 0.050063226 2.9500117)
(0.99978912 0.049665533 2.9500117)
(0.99978358 0.049667094 2.9500117)
(0.030785155 0.15598786 2.9500117)
(0.030365257 0.15587999 2.9500117)
(0.0055552097 0.12845694 2.9500117)
(0.0055690948 0.12840839 2.9500117)
(0.0055939578 0.12832272 2.9500117)
(0.019243263 0.1152347 2.9500117)
(0.01950261 0.11508915 2.9500117)
(0.054616481 0.16012743 2.9500117)
(0.053182758 0.15995714 2.9500117)
(0.039475258 0.10646692 2.9500117)
(0.038742229 0.10672183 2.9500117)
(0.042592242 0.10541669 2.9500117)
(0.043822158 0.10501567 2.9500117)
(1.0003942 0.049494751 2.9500117)
(1.0003968 0.049494039 2.9500117)
(1.0004007 0.049495254 2.9500117)
(0.021325847 0.15309592 2.9500117)
(0.02108054 0.15300088 2.9500117)
(0.020977393 0.15296042 2.9500117)
(0.017923091 0.15161803 2.9500117)
(0.017884215 0.15159893 2.9500117)
(0.017656881 0.1514861 2.9500117)
(0.0065984987 0.14244629 2.9500117)
(0.0065752026 0.14239487 2.9500117)
(0.006523136 0.14227873 2.9500117)
(0.0043288688 0.13567251 2.9500117)
(0.0043291044 0.13566881 2.9500117)
(0.0056071784 0.12827781 2.9500117)
(0.005631295 0.12819707 2.9500117)
(0.0056441659 0.12815461 2.9500117)
(0.011628916 0.12072116 2.9500117)
(0.01184947 0.12052137 2.9500117)
(0.011938398 0.12044142 2.9500117)
(0.019625572 0.11502077 2.9500117)
(0.019909967 0.11486405 2.9500117)
(0.99990124 0.049634214 2.9500117)
(0.99989605 0.049635652 2.9500117)
(0.99989092 0.049637094 2.9500117)
(0.99983293 0.049653288 2.9500117)
(0.99982756 0.049654797 2.9500117)
(0.99982214 0.049656309 2.9500117)
(0.99971384 0.049686585 2.9500117)
(0.99970782 0.04968828 2.9500117)
(1.0000682 0.049587671 2.9500117)
(1.0000635 0.049588982 2.9500117)
(1.0000588 0.049590293 2.9500117)
(0.017608104 0.15146162 2.9500117)
(0.017396718 0.15135449 2.9500117)
(0.017338876 0.15132487 2.9500117)
(0.015253009 0.15016478 2.9500117)
(0.014946791 0.14998035 2.9500117)
(0.014620787 0.14978051 2.9500117)
(0.0096237361 0.14649086 2.9500117)
(0.0096121412 0.14648238 2.9500117)
(0.006856164 0.14299248 2.9500117)
(0.0068712076 0.14302306 2.9500117)
(0.0067263823 0.14272258 2.9500117)
(0.0066715991 0.14260545 2.9500117)
(0.0066563943 0.14257263 2.9500117)
(0.0043296972 0.13566005 2.9500117)
(0.0043300549 0.13565509 2.9500117)
(0.0043617939 0.13603444 2.9500117)
(0.0043596607 0.13602571 2.9500117)
(0.0043588844 0.13602248 2.9500117)
(0.0043490301 0.1359781 2.9500117)
(0.0043468419 0.13596718 2.9500117)
(0.0056674941 0.12807868 2.9500117)
(0.0056802519 0.12803774 2.9500117)
(0.0057027587 0.12796649 2.9500117)
(0.11834643 0.16376674 2.9500117)
(0.1161206 0.16373599 2.9500117)
(0.112363 0.088225052 2.9500117)
(0.99945313 0.049759444 2.9500117)
(0.99944431 0.049761899 2.9500117)
(0.99943542 0.04976438 2.9500117)
(0.99977791 0.049668666 2.9500117)
(0.99977225 0.049670245 2.9500117)
(0.99976659 0.049671836 2.9500117)
(0.99974936 0.049676657 2.9500117)
(0.99974352 0.049678285 2.9500117)
(0.99973768 0.049679924 2.9500117)
(0.99973178 0.04968157 2.9500117)
(0.99970168 0.04968999 2.9500117)
(0.99969554 0.049691711 2.9500117)
(0.99968934 0.049693447 2.9500117)
(1.0003632 0.049503133 2.9500117)
(1.0002524 0.049536459 2.9500117)
(1.0002445 0.049538661 2.9500117)
(1.0003995 0.049493335 2.9500117)
(1.000402 0.049492639 2.9500117)
(1.0004057 0.049493868 2.9500117)
(0.020722149 0.15285908 2.9500117)
(0.02063757 0.1528251 2.9500117)
(0.02037352 0.15271771 2.9500117)
(0.0043566851 0.13601312 2.9500117)
(0.0043561691 0.13601089 2.9500117)
(0.0043536332 0.13599966 2.9500117)
(0.0043448121 0.13595659 2.9500117)
(0.098789386 0.16331653 2.9500117)
(0.1048046 0.089768089 2.9500117)
(0.10288493 0.16344401 2.9500117)
(0.11278858 0.16367573 2.9500117)
(0.098484524 0.16330561 2.9500117)
(0.095655389 0.16319264 2.9500117)
(0.096986823 0.091426417 2.9500117)
(0.092056245 0.1630227 2.9500117)
(0.089495309 0.093076982 2.9500117)
(0.083645836 0.16256733 2.9500117)
(0.078782447 0.16227826 2.9500117)
(0.052389856 0.15985999 2.9500117)
(0.051018413 0.15968654 2.9500117)
(0.050321124 0.15959561 2.9500117)
(0.99976087 0.049673434 2.9500117)
(0.99975514 0.04967504 2.9500117)
(0.99972582 0.049683232 2.9500117)
(0.99971986 0.049684901 2.9500117)
(0.99968308 0.049695197 2.9500117)
(0.99967676 0.04969696 2.9500117)
(0.99967039 0.04969874 2.9500117)
(1.0002755 0.049530052 2.9500117)
(1.0002679 0.049532153 2.9500117)
(1.0002602 0.049534291 2.9500117)
(0.01905464 0.15215024 2.9500117)
(0.018761054 0.15201643 2.9500117)
(0.018474845 0.15188316 2.9500117)
(0.017142346 0.15122323 2.9500117)
(0.017076178 0.15118864 2.9500117)
(0.016891513 0.15109116 2.9500117)
(0.0095634218 0.14644648 2.9500117)
(0.0095526241 0.14643846 2.9500117)
(0.0069159074 0.14311305 2.9500117)
(0.0069302265 0.14314158 2.9500117)
(0.0043276586 0.13569446 2.9500117)
(0.0043281661 0.13568452 2.9500117)
(0.004328311 0.1356819 2.9500117)
(0.99988574 0.04963854 2.9500117)
(0.99988055 0.049639992 2.9500117)
(0.99987531 0.049641449 2.9500117)
(0.99981672 0.049657829 2.9500117)
(0.99981123 0.049659353 2.9500117)
(0.99980575 0.049660888 2.9500117)
(1.0000823 0.049583763 2.9500117)
(1.0000776 0.049585063 2.9500117)
(1.0000728 0.049586367 2.9500117)
(1.0004046 0.049491953 2.9500117)
(1.0004071 0.049491271 2.9500117)
(1.0004106 0.049492512 2.9500117)
(0.020305911 0.1526899 2.9500117)
(0.020034051 0.1525767 2.9500117)
(0.019981991 0.15255478 2.9500117)
(0.016819688 0.15105286 2.9500117)
(0.0166329 0.15095222 2.9500117)
(0.015818786 0.15049663 2.9500117)
(0.01554282 0.15033627 2.9500117)
(0.0070281001 0.14333297 2.9500117)
(0.0069870735 0.14325354 2.9500117)
(0.0094965035 0.14639637 2.9500117)
(0.0043512629 0.13598877 2.9500117)
(0.004342929 0.13594627 2.9500117)
(0.0043415497 0.13593839 2.9500117)
(0.049031321 0.15942228 2.9500117)
(0.048341546 0.15932679 2.9500117)
(0.04692756 0.15912479 2.9500117)
(0.036864106 0.10739109 2.9500117)
(0.037439361 0.1071835 2.9500117)
(0.038136926 0.1069349 2.9500117)
(0.99942642 0.049766887 2.9500117)
(0.99941736 0.04976942 2.9500117)
(0.99940819 0.049771983 2.9500117)
(0.99980026 0.049662426 2.9500117)
(0.99979472 0.049663976 2.9500117)
(0.0197032 0.15243597 2.9500117)
(0.019665416 0.15241969 2.9500117)
(0.019380482 0.15229547 2.9500117)
(0.019356016 0.15228468 2.9500117)
(0.019065453 0.15215512 2.9500117)
(0.0095069129 0.14640422 2.9500117)
(0.0069730775 0.14322618 2.9500117)
(0.0047540339 0.13726646 2.9500117)
(0.01061683 0.1471574 2.9500117)
(0.010252336 0.1469214 2.9500117)
(0.0043411832 0.13593625 2.9500117)
(0.0043399781 0.135929 2.9500117)
(0.0043395665 0.13592646 2.9500117)
(0.0074811513 0.12468398 2.9500117)
(0.0075190822 0.12464187 2.9500117)
(0.0075273858 0.12463272 2.9500117)