/*--------------------------------*- C++ -*----------------------------------*\
| =========                 |                                                 |
| \\      /  F ield         | OpenFOAM: The Open Source CFD Toolbox           |
|  \\    /   O peration     | Version:  2306                                  |
|   \\  /    A nd           | Website:  www.openfoam.com                      |
|    \\/     M anipulation  |                                                 |
\*---------------------------------------------------------------------------*/
FoamFile
{
    version     2.0;
    format      ascii;
    arch        "LSB;label=32;scalar=64";
    class       extendedFeatureEdgeMesh;
    location    "constant/extendedFeatureEdgeMesh";
    object      NASA.extendedFeatureEdgeMesh;
}
// * * * * * * * * * * * * * * * * * * * * * * * * * * * * * * * * * * * * * //

// points

1664
(
(0.0155685 0.159826 2.95)
(0.0157343 0.159926 2.95)
(0.0155685 0.159826 0)
(0.0154078 0.159727 0)
(0.0154078 0.159727 2.95)
(0.0152516 0.15963 0)
(0.0152516 0.15963 2.95)
(0.0150999 0.159533 0)
(0.0150999 0.159533 2.95)
(0.0149523 0.159437 0)
(0.0149523 0.159437 2.95)
(0.0148084 0.159342 0)
(0.0148084 0.159342 2.95)
(0.0146683 0.159248 0)
(0.0146683 0.159248 2.95)
(0.0145315 0.159154 0)
(0.0145315 0.159154 2.95)
(0.014398 0.15906 0)
(0.014398 0.15906 2.95)
(0.0142675 0.158968 0)
(0.0142675 0.158968 2.95)
(0.0141393 0.158875 0)
(0.0141393 0.158875 2.95)
(0.0140124 0.158781 0)
(0.0140124 0.158781 2.95)
(0.0138867 0.158687 0)
(0.0138867 0.158687 2.95)
(0.0137623 0.158592 0)
(0.0137623 0.158592 2.95)
(0.0136391 0.158497 0)
(0.0136391 0.158497 2.95)
(0.0135172 0.158401 0)
(0.0135172 0.158401 2.95)
(0.0133966 0.158304 0)
(0.0133966 0.158304 2.95)
(0.0132773 0.158206 0)
(0.0132773 0.158206 2.95)
(0.0131592 0.158108 0)
(0.0131592 0.158108 2.95)
(0.0130425 0.15801 0)
(0.0130425 0.15801 2.95)
(0.012927 0.15791 0)
(0.012927 0.15791 2.95)
(0.0128129 0.157811 0)
(0.0128129 0.157811 2.95)
(0.0127 0.15771 0)
(0.0127 0.15771 2.95)
(0.0125884 0.15761 0)
(0.0125884 0.15761 2.95)
(0.0124782 0.157508 0)
(0.0124782 0.157508 2.95)
(0.0123692 0.157407 0)
(0.0123692 0.157407 2.95)
(0.0122616 0.157304 0)
(0.0122616 0.157304 2.95)
(0.0121552 0.157202 0)
(0.0121552 0.157202 2.95)
(0.0120502 0.157098 0)
(0.0120502 0.157098 2.95)
(0.0119464 0.156995 0)
(0.0119464 0.156995 2.95)
(0.011844 0.156891 0)
(0.011844 0.156891 2.95)
(0.0117428 0.156786 0)
(0.0117428 0.156786 2.95)
(0.0116429 0.156681 0)
(0.0116429 0.156681 2.95)
(0.0115444 0.156576 0)
(0.0115444 0.156576 2.95)
(0.011447 0.156471 0)
(0.011447 0.156471 2.95)
(0.011351 0.156365 0)
(0.011351 0.156365 2.95)
(0.0112563 0.156258 0)
(0.0112563 0.156258 2.95)
(0.0111628 0.156152 0)
(0.0111628 0.156152 2.95)
(0.0110706 0.156044 0)
(0.0110706 0.156044 2.95)
(0.0109796 0.155937 0)
(0.0109796 0.155937 2.95)
(0.0108899 0.155829 0)
(0.0108899 0.155829 2.95)
(0.0108014 0.155721 0)
(0.0108014 0.155721 2.95)
(0.0107142 0.155613 0)
(0.0107142 0.155613 2.95)
(0.0106282 0.155504 0)
(0.0106282 0.155504 2.95)
(0.0105431 0.155395 0)
(0.0105431 0.155395 2.95)
(0.010459 0.155285 0)
(0.010459 0.155285 2.95)
(0.0103757 0.155174 0)
(0.0103757 0.155174 2.95)
(0.0102933 0.155063 0)
(0.0102933 0.155063 2.95)
(0.0102118 0.154951 0)
(0.0102118 0.154951 2.95)
(0.0101313 0.154838 0)
(0.0101313 0.154838 2.95)
(0.0100517 0.154724 0)
(0.0100517 0.154724 2.95)
(0.00997316 0.15461 0)
(0.00997316 0.15461 2.95)
(0.00989556 0.154495 0)
(0.00989556 0.154495 2.95)
(0.00981897 0.15438 0)
(0.00981897 0.15438 2.95)
(0.00974339 0.154264 0)
(0.00974339 0.154264 2.95)
(0.00966885 0.154148 0)
(0.00966885 0.154148 2.95)
(0.00959536 0.154031 0)
(0.00959536 0.154031 2.95)
(0.00952292 0.153914 0)
(0.00952292 0.153914 2.95)
(0.00945156 0.153796 0)
(0.00945156 0.153796 2.95)
(0.00938128 0.153678 0)
(0.00938128 0.153678 2.95)
(0.00931209 0.15356 0)
(0.00931209 0.15356 2.95)
(0.00924401 0.153441 0)
(0.00924401 0.153441 2.95)
(0.00917704 0.153322 0)
(0.00917704 0.153322 2.95)
(0.0091112 0.153202 0)
(0.0091112 0.153202 2.95)
(0.00904648 0.153082 0)
(0.00986696 0.136968 0)
(0.00994966 0.136837 0)
(0.00986696 0.136968 2.95)
(0.00978536 0.137099 2.95)
(0.00978536 0.137099 0)
(0.00970546 0.13723 2.95)
(0.00970546 0.13723 0)
(0.00962696 0.137361 2.95)
(0.00962696 0.137361 0)
(0.00954986 0.137493 2.95)
(0.00954986 0.137493 0)
(0.00947416 0.137624 2.95)
(0.00947416 0.137624 0)
(0.00939984 0.137756 2.95)
(0.00939984 0.137756 0)
(0.00932692 0.137887 2.95)
(0.00932692 0.137887 0)
(0.00925538 0.138019 2.95)
(0.00925538 0.138019 0)
(0.00918522 0.138151 2.95)
(0.00918522 0.138151 0)
(0.00911643 0.138283 2.95)
(0.00911643 0.138283 0)
(0.00904902 0.138414 2.95)
(0.00904902 0.138414 0)
(0.00898297 0.138546 2.95)
(0.00898297 0.138546 0)
(0.00891828 0.138678 2.95)
(0.00891828 0.138678 0)
(0.00885494 0.13881 2.95)
(0.00885494 0.13881 0)
(0.00879296 0.138941 2.95)
(0.00879296 0.138941 0)
(0.00873231 0.139073 2.95)
(0.00873231 0.139073 0)
(0.008673 0.139204 2.95)
(0.008673 0.139204 0)
(0.00861502 0.139336 2.95)
(0.00861502 0.139336 0)
(0.00855835 0.139468 2.95)
(0.00855835 0.139468 0)
(0.008503 0.139599 2.95)
(0.008503 0.139599 0)
(0.00844896 0.13973 2.95)
(0.00844896 0.13973 0)
(0.00839622 0.139861 2.95)
(0.00839622 0.139861 0)
(0.00834476 0.139993 2.95)
(0.00834476 0.139993 0)
(0.00829459 0.140124 2.95)
(0.00829459 0.140124 0)
(0.0082457 0.140255 2.95)
(0.0082457 0.140255 0)
(0.00819807 0.140385 2.95)
(0.00819807 0.140385 0)
(0.0081517 0.140516 2.95)
(0.0081517 0.140516 0)
(0.00810653 0.140647 2.95)
(0.00810653 0.140647 0)
(0.00806242 0.140778 2.95)
(0.00806242 0.140778 0)
(0.00801938 0.14091 2.95)
(0.00801938 0.14091 0)
(0.00797743 0.141042 2.95)
(0.00797743 0.141042 0)
(0.00793656 0.141174 2.95)
(0.00793656 0.141174 0)
(0.00789678 0.141307 2.95)
(0.00789678 0.141307 0)
(0.00785812 0.14144 2.95)
(0.00785812 0.14144 0)
(0.00782057 0.141573 2.95)
(0.00782057 0.141573 0)
(0.00778413 0.141707 2.95)
(0.00778413 0.141707 0)
(0.00774883 0.141841 2.95)
(0.00774883 0.141841 0)
(0.00771466 0.141975 2.95)
(0.00771466 0.141975 0)
(0.00768162 0.142109 2.95)
(0.00768162 0.142109 0)
(0.00764974 0.142243 2.95)
(0.00764974 0.142243 0)
(0.00761899 0.142377 2.95)
(0.00761899 0.142377 0)
(0.0075894 0.142512 2.95)
(0.0075894 0.142512 0)
(0.00756096 0.142646 2.95)
(0.00756096 0.142646 0)
(0.00753368 0.142781 2.95)
(0.00753368 0.142781 0)
(0.00750755 0.142915 2.95)
(0.00750755 0.142915 0)
(0.00748258 0.14305 2.95)
(0.00748258 0.14305 0)
(0.00745877 0.143184 2.95)
(0.00745877 0.143184 0)
(0.00743612 0.143319 2.95)
(0.00743612 0.143319 0)
(0.00741463 0.143453 2.95)
(0.00741463 0.143453 0)
(0.00739429 0.143587 2.95)
(0.00739429 0.143587 0)
(0.00737511 0.143721 2.95)
(0.00737511 0.143721 0)
(0.00735709 0.143855 2.95)
(0.00735709 0.143855 0)
(0.00734021 0.143989 2.95)
(0.00734021 0.143989 0)
(0.00732448 0.144122 2.95)
(0.00732448 0.144122 0)
(0.0073099 0.144256 2.95)
(0.0073099 0.144256 0)
(0.00729645 0.144389 2.95)
(0.00729645 0.144389 0)
(0.00728414 0.144521 2.95)
(0.00728414 0.144521 0)
(0.00727296 0.144654 2.95)
(0.00727296 0.144654 0)
(0.00726291 0.144786 2.95)
(0.00726291 0.144786 0)
(0.00725398 0.144917 2.95)
(0.00725398 0.144917 0)
(0.00724616 0.145049 2.95)
(0.00724616 0.145049 0)
(0.00723945 0.14518 2.95)
(0.00723945 0.14518 0)
(0.00723384 0.14531 2.95)
(0.00723384 0.14531 0)
(0.00722932 0.14544 2.95)
(0.00722932 0.14544 0)
(0.00722589 0.14557 2.95)
(0.00722589 0.14557 0)
(0.00722355 0.145699 2.95)
(0.00722355 0.145699 0)
(0.00722227 0.145828 2.95)
(0.00722227 0.145828 0)
(0.00722206 0.145956 2.95)
(0.00722206 0.145956 0)
(0.00722291 0.146084 2.95)
(0.00722291 0.146084 0)
(0.00722481 0.146212 2.95)
(0.00722481 0.146212 0)
(0.00722775 0.146339 2.95)
(0.00722775 0.146339 0)
(0.00723172 0.146465 2.95)
(0.00723172 0.146465 0)
(0.00723671 0.146591 2.95)
(0.00723671 0.146591 0)
(0.00724272 0.146716 2.95)
(0.00724272 0.146716 0)
(0.00724973 0.146841 2.95)
(0.00724973 0.146841 0)
(0.00725774 0.146965 2.95)
(0.00725774 0.146965 0)
(0.00726674 0.147088 2.95)
(0.00726674 0.147088 0)
(0.00727672 0.147211 2.95)
(0.00727672 0.147211 0)
(0.00728768 0.147334 2.95)
(0.00728768 0.147334 0)
(0.00729959 0.147456 2.95)
(0.00729959 0.147456 0)
(0.00731245 0.147577 2.95)
(0.00731245 0.147577 0)
(0.00732626 0.147697 2.95)
(0.00732626 0.147697 0)
(0.00734101 0.147817 2.95)
(0.00734101 0.147817 0)
(0.00735668 0.147937 2.95)
(0.00735668 0.147937 0)
(0.00737327 0.148056 2.95)
(0.00737327 0.148056 0)
(0.00739077 0.148174 2.95)
(0.00739077 0.148174 0)
(0.00740916 0.148291 2.95)
(0.00740916 0.148291 0)
(0.00742846 0.148408 2.95)
(0.00742846 0.148408 0)
(0.00744874 0.148525 2.95)
(0.00744874 0.148525 0)
(0.00747008 0.148642 2.95)
(0.00747008 0.148642 0)
(0.00749249 0.14876 2.95)
(0.00749249 0.14876 0)
(0.00751597 0.148878 2.95)
(0.00751597 0.148878 0)
(0.00754054 0.148996 2.95)
(0.00754054 0.148996 0)
(0.00756618 0.149114 2.95)
(0.00756618 0.149114 0)
(0.00759293 0.149233 2.95)
(0.00759293 0.149233 0)
(0.00762077 0.149352 2.95)
(0.00762077 0.149352 0)
(0.00764972 0.149471 2.95)
(0.00764972 0.149471 0)
(0.00767978 0.14959 2.95)
(0.00767978 0.14959 0)
(0.00771096 0.14971 2.95)
(0.00771096 0.14971 0)
(0.00774327 0.149829 2.95)
(0.00774327 0.149829 0)
(0.00777671 0.14995 2.95)
(0.00777671 0.14995 0)
(0.00781129 0.15007 2.95)
(0.00781129 0.15007 0)
(0.007847 0.15019 2.95)
(0.007847 0.15019 0)
(0.00788387 0.150311 2.95)
(0.00788387 0.150311 0)
(0.00792188 0.150432 2.95)
(0.00792188 0.150432 0)
(0.00796105 0.150552 2.95)
(0.00796105 0.150552 0)
(0.00800137 0.150673 2.95)
(0.00800137 0.150673 0)
(0.00803786 0.15078 2.95)
(0.00803786 0.15078 0)
(0.00808038 0.150901 2.95)
(0.00808038 0.150901 0)
(0.00812408 0.151023 2.95)
(0.00812408 0.151023 0)
(0.00816894 0.151144 2.95)
(0.00816894 0.151144 0)
(0.00821498 0.151266 2.95)
(0.00821498 0.151266 0)
(0.00826219 0.151387 2.95)
(0.00826219 0.151387 0)
(0.00831059 0.151509 2.95)
(0.00831059 0.151509 0)
(0.00836016 0.15163 2.95)
(0.00836016 0.15163 0)
(0.00841091 0.151752 2.95)
(0.00841091 0.151752 0)
(0.00846284 0.151873 2.95)
(0.00846284 0.151873 0)
(0.00851594 0.151995 2.95)
(0.00851594 0.151995 0)
(0.00857022 0.152116 2.95)
(0.00857022 0.152116 0)
(0.00862568 0.152238 2.95)
(0.00862568 0.152238 0)
(0.00868231 0.152359 2.95)
(0.00868231 0.152359 0)
(0.00874011 0.15248 2.95)
(0.00874011 0.15248 0)
(0.00879907 0.152601 2.95)
(0.00879907 0.152601 0)
(0.00885919 0.152722 2.95)
(0.00885919 0.152722 0)
(0.00892047 0.152842 2.95)
(0.00892047 0.152842 0)
(0.00898291 0.152962 2.95)
(0.00898291 0.152962 0)
(0.00904648 0.153082 2.95)
(0.604889 0.007984 0)
(0.612145 0.00767511 0)
(0.604889 0.007984 2.95)
(0.588226 0.00873063 2.95)
(0.588226 0.00873063 0)
(0.57323 0.00952575 2.95)
(0.57323 0.00952575 0)
(0.566779 0.00990495 2.95)
(0.566779 0.00990495 0)
(0.558374 0.0104699 2.95)
(0.558374 0.0104699 0)
(0.549556 0.0111349 2.95)
(0.549556 0.0111349 0)
(0.541894 0.0117751 2.95)
(0.541894 0.0117751 0)
(0.534723 0.0124262 2.95)
(0.534723 0.0124262 0)
(0.527734 0.0131216 2.95)
(0.527734 0.0131216 0)
(0.512917 0.0146436 2.95)
(0.512917 0.0146436 0)
(0.506553 0.0153362 2.95)
(0.506553 0.0153362 0)
(0.500443 0.0160529 2.95)
(0.500443 0.0160529 0)
(0.481963 0.0183251 2.95)
(0.481963 0.0183251 0)
(0.475041 0.0192391 2.95)
(0.475041 0.0192391 0)
(0.450531 0.0225141 2.95)
(0.450531 0.0225141 0)
(0.432637 0.0250788 2.95)
(0.432637 0.0250788 0)
(0.426232 0.0260518 2.95)
(0.426232 0.0260518 0)
(0.401093 0.0299233 2.95)
(0.401093 0.0299233 0)
(0.375851 0.0340494 2.95)
(0.375851 0.0340494 0)
(0.369216 0.0351746 2.95)
(0.369216 0.0351746 0)
(0.345779 0.0392492 2.95)
(0.345779 0.0392492 0)
(0.340052 0.0402808 2.95)
(0.340052 0.0402808 0)
(0.303639 0.0469983 2.95)
(0.303639 0.0469983 0)
(0.290778 0.0495062 2.95)
(0.290778 0.0495062 0)
(0.272622 0.0530487 2.95)
(0.272622 0.0530487 0)
(0.246034 0.0584999 2.95)
(0.246034 0.0584999 0)
(0.236482 0.0605535 2.95)
(0.236482 0.0605535 0)
(0.224077 0.0632368 2.95)
(0.224077 0.0632368 0)
(0.197728 0.0691889 2.95)
(0.197728 0.0691889 0)
(0.19091 0.0707754 2.95)
(0.19091 0.0707754 0)
(0.169893 0.0759389 2.95)
(0.169893 0.0759389 0)
(0.156822 0.0791657 2.95)
(0.156822 0.0791657 0)
(0.150817 0.080702 2.95)
(0.150817 0.080702 0)
(0.144547 0.082361 2.95)
(0.144547 0.082361 0)
(0.131656 0.0858151 2.95)
(0.131656 0.0858151 0)
(0.125007 0.0876265 2.95)
(0.125007 0.0876265 0)
(0.117761 0.0896672 2.95)
(0.117761 0.0896672 0)
(0.10984 0.0919606 2.95)
(0.10984 0.0919606 0)
(0.102369 0.0941885 2.95)
(0.102369 0.0941885 0)
(0.0948178 0.0965029 2.95)
(0.0948178 0.0965029 0)
(0.0875354 0.0987971 2.95)
(0.0875354 0.0987971 0)
(0.0783963 0.101756 2.95)
(0.0783963 0.101756 0)
(0.0732991 0.103445 2.95)
(0.0732991 0.103445 0)
(0.0696329 0.104693 2.95)
(0.0696329 0.104693 0)
(0.0662214 0.105887 2.95)
(0.0662214 0.105887 0)
(0.0618464 0.107458 2.95)
(0.0618464 0.107458 0)
(0.0575501 0.10904 2.95)
(0.0575501 0.10904 0)
(0.0544121 0.110223 2.95)
(0.0544121 0.110223 0)
(0.0517137 0.111263 2.95)
(0.0517137 0.111263 0)
(0.0494155 0.112167 2.95)
(0.0494155 0.112167 0)
(0.0473888 0.112981 2.95)
(0.0473888 0.112981 0)
(0.0455611 0.113732 2.95)
(0.0455611 0.113732 0)
(0.0438878 0.114433 2.95)
(0.0438878 0.114433 0)
(0.0423161 0.115107 2.95)
(0.0423161 0.115107 0)
(0.0408011 0.11577 2.95)
(0.0408011 0.11577 0)
(0.0393379 0.116425 2.95)
(0.0393379 0.116425 0)
(0.0379219 0.117072 2.95)
(0.0379219 0.117072 0)
(0.0365495 0.117713 2.95)
(0.0365495 0.117713 0)
(0.0352175 0.118349 2.95)
(0.0352175 0.118349 0)
(0.0339221 0.118979 2.95)
(0.0339221 0.118979 0)
(0.0327415 0.119565 2.95)
(0.0327415 0.119565 0)
(0.031701 0.120092 2.95)
(0.031701 0.120092 0)
(0.0307633 0.120575 2.95)
(0.0307633 0.120575 0)
(0.0299053 0.121025 2.95)
(0.0299053 0.121025 0)
(0.0291112 0.12145 2.95)
(0.0291112 0.12145 0)
(0.0283699 0.121853 2.95)
(0.0283699 0.121853 0)
(0.0276731 0.12224 2.95)
(0.0276731 0.12224 0)
(0.0270147 0.122612 2.95)
(0.0270147 0.122612 0)
(0.0263895 0.122972 2.95)
(0.0263895 0.122972 0)
(0.0257936 0.123321 2.95)
(0.0257936 0.123321 0)
(0.0252239 0.123661 2.95)
(0.0252239 0.123661 0)
(0.0246776 0.123993 2.95)
(0.0246776 0.123993 0)
(0.0241525 0.124318 2.95)
(0.0241525 0.124318 0)
(0.0236438 0.124638 2.95)
(0.0236438 0.124638 0)
(0.023145 0.124958 2.95)
(0.023145 0.124958 0)
(0.0226557 0.125278 2.95)
(0.0226557 0.125278 0)
(0.0221755 0.125597 2.95)
(0.0221755 0.125597 0)
(0.0217042 0.125916 2.95)
(0.0217042 0.125916 0)
(0.0212416 0.126234 2.95)
(0.0212416 0.126234 0)
(0.0207873 0.126553 2.95)
(0.0207873 0.126553 0)
(0.0203412 0.126871 2.95)
(0.0203412 0.126871 0)
(0.0199029 0.127189 2.95)
(0.0199029 0.127189 0)
(0.0194724 0.127506 2.95)
(0.0194724 0.127506 0)
(0.0190493 0.127824 2.95)
(0.0190493 0.127824 0)
(0.0186335 0.128142 2.95)
(0.0186335 0.128142 0)
(0.0182248 0.128459 2.95)
(0.0182248 0.128459 0)
(0.017823 0.128776 2.95)
(0.017823 0.128776 0)
(0.0174279 0.129094 2.95)
(0.0174279 0.129094 0)
(0.0170393 0.129411 2.95)
(0.0170393 0.129411 0)
(0.0166571 0.129729 2.95)
(0.0166571 0.129729 0)
(0.0162812 0.130046 2.95)
(0.0162812 0.130046 0)
(0.0159113 0.130364 2.95)
(0.0159113 0.130364 0)
(0.0155473 0.130682 2.95)
(0.0155473 0.130682 0)
(0.0151891 0.131 2.95)
(0.0151891 0.131 0)
(0.0148381 0.131316 2.95)
(0.0148381 0.131316 0)
(0.0145186 0.131609 2.95)
(0.0145186 0.131609 0)
(0.0142311 0.131877 2.95)
(0.0142311 0.131877 0)
(0.0139685 0.132125 2.95)
(0.0139685 0.132125 0)
(0.0137262 0.132358 2.95)
(0.0137262 0.132358 0)
(0.0135006 0.132577 2.95)
(0.0135006 0.132577 0)
(0.0132894 0.132787 2.95)
(0.0132894 0.132787 0)
(0.0130905 0.132987 2.95)
(0.0130905 0.132987 0)
(0.0129025 0.133179 2.95)
(0.0129025 0.133179 0)
(0.012724 0.133364 2.95)
(0.012724 0.133364 0)
(0.0125541 0.133543 2.95)
(0.0125541 0.133543 0)
(0.0123919 0.133717 2.95)
(0.0123919 0.133717 0)
(0.0122368 0.133886 2.95)
(0.0122368 0.133886 0)
(0.012088 0.13405 2.95)
(0.012088 0.13405 0)
(0.0119452 0.134211 2.95)
(0.0119452 0.134211 0)
(0.0118078 0.134368 2.95)
(0.0118078 0.134368 0)
(0.0116755 0.134522 2.95)
(0.0116755 0.134522 0)
(0.0115478 0.134673 2.95)
(0.0115478 0.134673 0)
(0.0114246 0.134821 2.95)
(0.0114246 0.134821 0)
(0.0113055 0.134966 2.95)
(0.0113055 0.134966 0)
(0.0111902 0.135109 2.95)
(0.0111902 0.135109 0)
(0.0110786 0.13525 2.95)
(0.0110786 0.13525 0)
(0.0109704 0.135389 2.95)
(0.0109704 0.135389 0)
(0.0108655 0.135525 2.95)
(0.0108655 0.135525 0)
(0.0107637 0.135661 2.95)
(0.0107637 0.135661 0)
(0.0106648 0.135794 2.95)
(0.0106648 0.135794 0)
(0.0105687 0.135926 2.95)
(0.0105687 0.135926 0)
(0.0104753 0.136056 2.95)
(0.0104753 0.136056 0)
(0.0103841 0.136186 2.95)
(0.0103841 0.136186 0)
(0.0102945 0.136315 2.95)
(0.0102945 0.136315 0)
(0.0102062 0.136445 2.95)
(0.0102062 0.136445 0)
(0.0101193 0.136576 2.95)
(0.0101193 0.136576 0)
(0.0100338 0.136706 2.95)
(0.0100338 0.136706 0)
(0.00994966 0.136837 2.95)
(0.880876 0.00199468 0)
(0.880916 0.00203337 0)
(0.880876 0.00199468 2.95)
(0.880836 0.00195632 2.95)
(0.880836 0.00195632 0)
(0.880796 0.00191829 2.95)
(0.880796 0.00191829 0)
(0.880755 0.00188059 2.95)
(0.880755 0.00188059 0)
(0.880714 0.00184324 2.95)
(0.880714 0.00184324 0)
(0.880673 0.00180624 2.95)
(0.880673 0.00180624 0)
(0.880631 0.00176959 2.95)
(0.880631 0.00176959 0)
(0.880589 0.0017333 2.95)
(0.880589 0.0017333 0)
(0.880547 0.00169738 2.95)
(0.880547 0.00169738 0)
(0.880505 0.00166182 2.95)
(0.880505 0.00166182 0)
(0.880462 0.00162664 2.95)
(0.880462 0.00162664 0)
(0.880419 0.00159184 2.95)
(0.880419 0.00159184 0)
(0.880376 0.00155742 2.95)
(0.880376 0.00155742 0)
(0.880333 0.00152341 2.95)
(0.880333 0.00152341 0)
(0.880289 0.00148977 2.95)
(0.880289 0.00148977 0)
(0.880245 0.00145654 2.95)
(0.880245 0.00145654 0)
(0.880201 0.00142372 2.95)
(0.880201 0.00142372 0)
(0.880157 0.00139131 2.95)
(0.880157 0.00139131 0)
(0.880112 0.0013593 2.95)
(0.880112 0.0013593 0)
(0.880068 0.0013277 2.95)
(0.880068 0.0013277 0)
(0.880023 0.00129647 2.95)
(0.880023 0.00129647 0)
(0.879977 0.0012655 2.95)
(0.879977 0.0012655 0)
(0.879931 0.00123478 2.95)
(0.879931 0.00123478 0)
(0.879885 0.00120433 2.95)
(0.879885 0.00120433 0)
(0.879838 0.00117414 2.95)
(0.879838 0.00117414 0)
(0.879791 0.00114422 2.95)
(0.879791 0.00114422 0)
(0.879743 0.00111457 2.95)
(0.879743 0.00111457 0)
(0.879695 0.0010852 2.95)
(0.879695 0.0010852 0)
(0.879647 0.0010561 2.95)
(0.879647 0.0010561 0)
(0.879598 0.0010273 2.95)
(0.879598 0.0010273 0)
(0.879548 0.00099878 2.95)
(0.879548 0.00099878 0)
(0.879499 0.00097055 2.95)
(0.879499 0.00097055 0)
(0.879448 0.000942618 2.95)
(0.879448 0.000942618 0)
(0.879398 0.000914983 2.95)
(0.879398 0.000914983 0)
(0.879346 0.000887647 2.95)
(0.879346 0.000887647 0)
(0.879295 0.000860631 2.95)
(0.879295 0.000860631 0)
(0.879243 0.000833921 2.95)
(0.879243 0.000833921 0)
(0.87919 0.000807531 2.95)
(0.87919 0.000807531 0)
(0.879137 0.000781469 2.95)
(0.879137 0.000781469 0)
(0.879084 0.000755727 2.95)
(0.879084 0.000755727 0)
(0.87903 0.000730321 2.95)
(0.87903 0.000730321 0)
(0.878975 0.000705257 2.95)
(0.878975 0.000705257 0)
(0.87892 0.000680536 2.95)
(0.87892 0.000680536 0)
(0.878865 0.000656165 2.95)
(0.878865 0.000656165 0)
(0.878809 0.000632145 2.95)
(0.878809 0.000632145 0)
(0.878753 0.000608489 2.95)
(0.878753 0.000608489 0)
(0.878697 0.000585198 2.95)
(0.878697 0.000585198 0)
(0.87864 0.00056228 2.95)
(0.87864 0.00056228 0)
(0.878582 0.000539742 2.95)
(0.878582 0.000539742 0)
(0.878524 0.000517584 2.95)
(0.878524 0.000517584 0)
(0.878466 0.000495821 2.95)
(0.878466 0.000495821 0)
(0.878408 0.000474654 2.95)
(0.878408 0.000474654 0)
(0.87835 0.000454172 2.95)
(0.87835 0.000454172 0)
(0.878292 0.000434354 2.95)
(0.878292 0.000434354 0)
(0.878235 0.000415206 2.95)
(0.878235 0.000415206 0)
(0.878179 0.000396706 2.95)
(0.878179 0.000396706 0)
(0.878123 0.000378847 2.95)
(0.878123 0.000378847 0)
(0.878067 0.000361629 2.95)
(0.878067 0.000361629 0)
(0.878011 0.000345029 2.95)
(0.878011 0.000345029 0)
(0.877957 0.000329055 2.95)
(0.877957 0.000329055 0)
(0.877902 0.000313684 2.95)
(0.877902 0.000313684 0)
(0.877848 0.00029891 2.95)
(0.877848 0.00029891 0)
(0.877794 0.000284724 2.95)
(0.877794 0.000284724 0)
(0.877741 0.000271119 2.95)
(0.877741 0.000271119 0)
(0.877688 0.000258088 2.95)
(0.877688 0.000258088 0)
(0.877636 0.000245608 2.95)
(0.877636 0.000245608 0)
(0.877584 0.000233687 2.95)
(0.877584 0.000233687 0)
(0.877532 0.000222303 2.95)
(0.877532 0.000222303 0)
(0.877481 0.000211447 2.95)
(0.877481 0.000211447 0)
(0.877431 0.000201121 2.95)
(0.877431 0.000201121 0)
(0.87738 0.000191301 2.95)
(0.87738 0.000191301 0)
(0.87733 0.000181988 2.95)
(0.87733 0.000181988 0)
(0.877281 0.000173174 2.95)
(0.877281 0.000173174 0)
(0.877232 0.000164844 2.95)
(0.877232 0.000164844 0)
(0.877183 0.000156999 2.95)
(0.877183 0.000156999 0)
(0.877135 0.000149615 2.95)
(0.877135 0.000149615 0)
(0.877087 0.000142694 2.95)
(0.877087 0.000142694 0)
(0.877039 0.000136226 2.95)
(0.877039 0.000136226 0)
(0.876998 0.000130959 2.95)
(0.876998 0.000130959 0)
(0.876952 0.000125319 2.95)
(0.876952 0.000125319 0)
(0.876905 0.000120118 2.95)
(0.876905 0.000120118 0)
(0.876859 0.000115335 2.95)
(0.876859 0.000115335 0)
(0.876814 0.000110976 2.95)
(0.876814 0.000110976 0)
(0.876768 0.00010702 2.95)
(0.876768 0.00010702 0)
(0.876723 0.000103474 2.95)
(0.876723 0.000103474 0)
(0.876678 0.0001003 2.95)
(0.876678 0.0001003 0)
(0.876632 9.74312e-05 2.95)
(0.876632 9.74312e-05 0)
(0.876585 9.48831e-05 2.95)
(0.876585 9.48831e-05 0)
(0.876536 9.26778e-05 2.95)
(0.876536 9.26778e-05 0)
(0.876485 9.083e-05 2.95)
(0.876485 9.083e-05 0)
(0.876433 8.93697e-05 2.95)
(0.876433 8.93697e-05 0)
(0.876378 8.83117e-05 2.95)
(0.876378 8.83117e-05 0)
(0.876321 8.77082e-05 2.95)
(0.876321 8.77082e-05 0)
(0.876262 8.7589e-05 2.95)
(0.876262 8.7589e-05 0)
(0.8762 8.80063e-05 2.95)
(0.8762 8.80063e-05 0)
(0.876141 8.88854e-05 2.95)
(0.876141 8.88854e-05 0)
(0.876078 9.0301e-05 2.95)
(0.876078 9.0301e-05 0)
(0.876013 9.23052e-05 2.95)
(0.876013 9.23052e-05 0)
(0.875943 9.49875e-05 2.95)
(0.875943 9.49875e-05 0)
(0.875868 9.8452e-05 2.95)
(0.875868 9.8452e-05 0)
(0.875787 0.00010284 2.95)
(0.875787 0.00010284 0)
(0.875698 0.000108376 2.95)
(0.875698 0.000108376 0)
(0.875598 0.000115372 2.95)
(0.875598 0.000115372 0)
(0.875482 0.00012435 2.95)
(0.875482 0.00012435 0)
(0.875345 0.000135906 2.95)
(0.875345 0.000135906 0)
(0.875143 0.000154547 2.95)
(0.875143 0.000154547 0)
(0.875075 0.000161134 2.95)
(0.875075 0.000161134 0)
(0.874434 0.00022345 2.95)
(0.874434 0.00022345 0)
(0.873189 0.000339858 2.95)
(0.873189 0.000339858 0)
(0.870876 0.000540599 2.95)
(0.870876 0.000540599 0)
(0.867221 0.000829458 2.95)
(0.867221 0.000829458 0)
(0.861167 0.00128189 2.95)
(0.861167 0.00128189 0)
(0.852951 0.00186116 2.95)
(0.852951 0.00186116 0)
(0.844641 0.00237217 2.95)
(0.844641 0.00237217 0)
(0.838422 0.00271342 2.95)
(0.838422 0.00271342 0)
(0.832309 0.00300317 2.95)
(0.832309 0.00300317 0)
(0.815508 0.00372256 2.95)
(0.815508 0.00372256 0)
(0.80729 0.00400271 2.95)
(0.80729 0.00400271 0)
(0.794609 0.00441967 2.95)
(0.794609 0.00441967 0)
(0.786551 0.00461069 2.95)
(0.786551 0.00461069 0)
(0.773916 0.00490083 2.95)
(0.773916 0.00490083 0)
(0.762196 0.00505544 2.95)
(0.762196 0.00505544 0)
(0.743119 0.00531553 2.95)
(0.743119 0.00531553 0)
(0.679048 0.0061793 2.95)
(0.679048 0.0061793 0)
(0.651535 0.00655706 2.95)
(0.651535 0.00655706 0)
(0.635706 0.00692131 2.95)
(0.635706 0.00692131 0)
(0.630155 0.00707338 2.95)
(0.630155 0.00707338 0)
(0.612145 0.00767511 2.95)
(0.882745 0.00876667 0)
(0.88273 0.00882068 0)
(0.882745 0.00876667 2.95)
(0.882758 0.00871248 2.95)
(0.882758 0.00871248 0)
(0.882772 0.00865813 2.95)
(0.882772 0.00865813 0)
(0.882785 0.00860361 2.95)
(0.882785 0.00860361 0)
(0.882798 0.00854894 2.95)
(0.882798 0.00854894 0)
(0.88281 0.00849412 2.95)
(0.88281 0.00849412 0)
(0.882822 0.00843916 2.95)
(0.882822 0.00843916 0)
(0.882833 0.00838407 2.95)
(0.882833 0.00838407 0)
(0.882844 0.00832886 2.95)
(0.882844 0.00832886 0)
(0.882854 0.00827353 2.95)
(0.882854 0.00827353 0)
(0.882864 0.0082181 2.95)
(0.882864 0.0082181 0)
(0.882873 0.00816257 2.95)
(0.882873 0.00816257 0)
(0.882882 0.00810693 2.95)
(0.882882 0.00810693 0)
(0.882891 0.00805122 2.95)
(0.882891 0.00805122 0)
(0.882899 0.00799543 2.95)
(0.882899 0.00799543 0)
(0.882907 0.00793958 2.95)
(0.882907 0.00793958 0)
(0.882914 0.00788366 2.95)
(0.882914 0.00788366 0)
(0.88292 0.00782769 2.95)
(0.88292 0.00782769 0)
(0.882927 0.00777168 2.95)
(0.882927 0.00777168 0)
(0.882932 0.00771563 2.95)
(0.882932 0.00771563 0)
(0.882938 0.00765954 2.95)
(0.882938 0.00765954 0)
(0.882943 0.00760326 2.95)
(0.882943 0.00760326 0)
(0.882947 0.00754673 2.95)
(0.882947 0.00754673 0)
(0.882951 0.00748997 2.95)
(0.882951 0.00748997 0)
(0.882954 0.00743297 2.95)
(0.882954 0.00743297 0)
(0.882957 0.00737574 2.95)
(0.882957 0.00737574 0)
(0.88296 0.00731827 2.95)
(0.88296 0.00731827 0)
(0.882962 0.00726059 2.95)
(0.882962 0.00726059 0)
(0.882964 0.00720268 2.95)
(0.882964 0.00720268 0)
(0.882965 0.00714456 2.95)
(0.882965 0.00714456 0)
(0.882965 0.00708622 2.95)
(0.882965 0.00708622 0)
(0.882965 0.00702767 2.95)
(0.882965 0.00702767 0)
(0.882965 0.00696892 2.95)
(0.882965 0.00696892 0)
(0.882964 0.00690998 2.95)
(0.882964 0.00690998 0)
(0.882963 0.00685085 2.95)
(0.882963 0.00685085 0)
(0.882961 0.00679152 2.95)
(0.882961 0.00679152 0)
(0.882959 0.00673202 2.95)
(0.882959 0.00673202 0)
(0.882956 0.00667234 2.95)
(0.882956 0.00667234 0)
(0.882953 0.00661249 2.95)
(0.882953 0.00661249 0)
(0.882949 0.00655248 2.95)
(0.882949 0.00655248 0)
(0.882944 0.00649232 2.95)
(0.882944 0.00649232 0)
(0.88294 0.006432 2.95)
(0.88294 0.006432 0)
(0.882934 0.00637156 2.95)
(0.882934 0.00637156 0)
(0.882928 0.00631097 2.95)
(0.882928 0.00631097 0)
(0.882922 0.00625026 2.95)
(0.882922 0.00625026 0)
(0.882915 0.00618944 2.95)
(0.882915 0.00618944 0)
(0.882907 0.00612851 2.95)
(0.882907 0.00612851 0)
(0.882899 0.00606748 2.95)
(0.882899 0.00606748 0)
(0.882891 0.00600639 2.95)
(0.882891 0.00600639 0)
(0.882885 0.00596482 2.95)
(0.882885 0.00596482 0)
(0.882875 0.00590357 2.95)
(0.882875 0.00590357 0)
(0.882865 0.00584226 2.95)
(0.882865 0.00584226 0)
(0.882855 0.00578099 2.95)
(0.882855 0.00578099 0)
(0.882844 0.00571997 2.95)
(0.882844 0.00571997 0)
(0.882832 0.00565917 2.95)
(0.882832 0.00565917 0)
(0.882821 0.00559863 2.95)
(0.882821 0.00559863 0)
(0.882808 0.00553834 2.95)
(0.882808 0.00553834 0)
(0.882795 0.00547832 2.95)
(0.882795 0.00547832 0)
(0.882782 0.00541856 2.95)
(0.882782 0.00541856 0)
(0.882768 0.00535909 2.95)
(0.882768 0.00535909 0)
(0.882754 0.0052999 2.95)
(0.882754 0.0052999 0)
(0.882739 0.00524101 2.95)
(0.882739 0.00524101 0)
(0.882724 0.00518241 2.95)
(0.882724 0.00518241 0)
(0.882709 0.00512411 2.95)
(0.882709 0.00512411 0)
(0.882693 0.00506613 2.95)
(0.882693 0.00506613 0)
(0.882676 0.00500847 2.95)
(0.882676 0.00500847 0)
(0.88266 0.00495113 2.95)
(0.88266 0.00495113 0)
(0.882642 0.00489412 2.95)
(0.882642 0.00489412 0)
(0.882625 0.00483744 2.95)
(0.882625 0.00483744 0)
(0.882607 0.0047811 2.95)
(0.882607 0.0047811 0)
(0.882588 0.00472509 2.95)
(0.882588 0.00472509 0)
(0.882569 0.00466944 2.95)
(0.882569 0.00466944 0)
(0.88255 0.00461413 2.95)
(0.88255 0.00461413 0)
(0.882531 0.00455917 2.95)
(0.882531 0.00455917 0)
(0.882511 0.00450457 2.95)
(0.882511 0.00450457 0)
(0.88249 0.00445033 2.95)
(0.88249 0.00445033 0)
(0.882469 0.00439645 2.95)
(0.882469 0.00439645 0)
(0.882448 0.00434294 2.95)
(0.882448 0.00434294 0)
(0.882427 0.00428978 2.95)
(0.882427 0.00428978 0)
(0.882405 0.004237 2.95)
(0.882405 0.004237 0)
(0.882383 0.0041846 2.95)
(0.882383 0.0041846 0)
(0.88236 0.00413256 2.95)
(0.88236 0.00413256 0)
(0.882337 0.0040809 2.95)
(0.882337 0.0040809 0)
(0.882314 0.00402959 2.95)
(0.882314 0.00402959 0)
(0.88229 0.00397847 2.95)
(0.88229 0.00397847 0)
(0.882266 0.00392754 2.95)
(0.882266 0.00392754 0)
(0.882242 0.00387679 2.95)
(0.882242 0.00387679 0)
(0.882217 0.00382625 2.95)
(0.882217 0.00382625 0)
(0.882191 0.00377592 2.95)
(0.882191 0.00377592 0)
(0.882166 0.0037258 2.95)
(0.882166 0.0037258 0)
(0.882139 0.0036759 2.95)
(0.882139 0.0036759 0)
(0.882113 0.00362623 2.95)
(0.882113 0.00362623 0)
(0.882086 0.0035768 2.95)
(0.882086 0.0035768 0)
(0.882058 0.00352761 2.95)
(0.882058 0.00352761 0)
(0.88203 0.00347867 2.95)
(0.88203 0.00347867 0)
(0.882002 0.00342999 2.95)
(0.882002 0.00342999 0)
(0.881974 0.00338157 2.95)
(0.881974 0.00338157 0)
(0.881945 0.00333341 2.95)
(0.881945 0.00333341 0)
(0.881915 0.00328554 2.95)
(0.881915 0.00328554 0)
(0.881886 0.00323795 2.95)
(0.881886 0.00323795 0)
(0.881856 0.00319064 2.95)
(0.881856 0.00319064 0)
(0.881825 0.00314364 2.95)
(0.881825 0.00314364 0)
(0.881794 0.00309693 2.95)
(0.881794 0.00309693 0)
(0.881763 0.00305054 2.95)
(0.881763 0.00305054 0)
(0.881732 0.00300445 2.95)
(0.881732 0.00300445 0)
(0.8817 0.00295868 2.95)
(0.8817 0.00295868 0)
(0.881668 0.00291323 2.95)
(0.881668 0.00291323 0)
(0.881635 0.00286812 2.95)
(0.881635 0.00286812 0)
(0.881602 0.00282333 2.95)
(0.881602 0.00282333 0)
(0.881569 0.00277889 2.95)
(0.881569 0.00277889 0)
(0.881536 0.00273478 2.95)
(0.881536 0.00273478 0)
(0.881503 0.00269202 2.95)
(0.881503 0.00269202 0)
(0.881469 0.00264861 2.95)
(0.881469 0.00264861 0)
(0.881434 0.00260556 2.95)
(0.881434 0.00260556 0)
(0.8814 0.00256287 2.95)
(0.8814 0.00256287 0)
(0.881365 0.00252052 2.95)
(0.881365 0.00252052 0)
(0.881329 0.00247847 2.95)
(0.881329 0.00247847 0)
(0.881293 0.00243665 2.95)
(0.881293 0.00243665 0)
(0.881257 0.00239507 2.95)
(0.881257 0.00239507 0)
(0.881221 0.00235376 2.95)
(0.881221 0.00235376 0)
(0.881184 0.00231271 2.95)
(0.881184 0.00231271 0)
(0.881147 0.00227194 2.95)
(0.881147 0.00227194 0)
(0.881109 0.00223144 2.95)
(0.881109 0.00223144 0)
(0.881071 0.00219123 2.95)
(0.881071 0.00219123 0)
(0.881033 0.00215131 2.95)
(0.881033 0.00215131 0)
(0.880994 0.00211169 2.95)
(0.880994 0.00211169 0)
(0.880955 0.00207237 2.95)
(0.880955 0.00207237 0)
(0.880916 0.00203337 2.95)
(0.87767 0.0136528 0)
(0.877261 0.01376 0)
(0.87767 0.0136528 2.95)
(0.877847 0.013605 2.95)
(0.877847 0.013605 0)